Version 4.1
SHEET 1 880 680
WIRE 112 -80 80 -80
WIRE 256 -80 192 -80
WIRE 320 -80 256 -80
WIRE 432 -80 320 -80
WIRE 256 -48 256 -80
WIRE 320 -48 320 -80
WIRE 256 48 256 16
WIRE 288 48 256 48
WIRE 320 48 320 16
WIRE 320 48 288 48
WIRE 288 64 288 48
WIRE 432 128 432 -80
WIRE 432 128 336 128
WIRE 464 128 432 128
WIRE 80 192 -16 192
WIRE -16 224 -16 192
WIRE 80 256 64 256
WIRE -16 320 -16 288
WIRE 80 320 -16 320
WIRE 400 320 336 320
WIRE 432 320 400 320
WIRE 400 336 400 320
WIRE 64 416 64 256
WIRE 400 416 400 400
FLAG 80 -80 0
FLAG 464 128 9V
FLAG 432 320 I_9V
FLAG 400 416 0
FLAG 288 64 0
FLAG 64 416 0
SYMBOL voltage 208 -80 R90
WINDOW 0 -32 56 VBottom 2
WINDOW 3 32 56 VTop 2
SYMATTR InstName V1
SYMATTR Value 9V
SYMBOL PowerProducts\\LT1054 208 224 R0
SYMATTR InstName U1
SYMBOL polcap -32 224 R0
SYMATTR InstName C1
SYMATTR Value 10µF
SYMBOL polcap 416 400 R180
WINDOW 0 24 57 Left 2
WINDOW 3 24 8 Left 2
SYMATTR InstName C2
SYMATTR Value 100µF
SYMBOL polcap 304 -48 R0
SYMATTR InstName C3
SYMATTR Value 47µF
SYMBOL zener 272 16 R180
WINDOW 0 24 64 Left 2
WINDOW 3 24 0 Left 2
SYMATTR InstName D1
SYMATTR Value 1N4740A
TEXT -16 504 Left 2 !.tran 10ms startup
